CE
GW	1	19	0.0	0.055	0.02	0.0	-0.055	0.02	0.0002
GW	2	5	0.0	0.055	0.02	0.02756	0.055	0.02	0.0002
GW	3	5	0.0	-0.055	0.02	0.02756	-0.055	0.02	0.0002
GW	4	11	0.03719	0.03515	0.02	0.03719	-0.03515	0.02	0.0002
GW	5	7	0.03719	0.03515	0.02	0.08395	0.03515	0.02	0.0002
GW	6	7	0.03719	-0.03515	0.02	0.08395	-0.03515	0.02	0.0002
GE	1
EX	0	1	10	0	1.0	0.0	0.0	0.0	0.0	0.0
FR	0	1	0	0	915.0	0.0
GN	1	0	0	0	0.0	0.0	0.0	0.0	0.0	0.0
RP	0	1	1	1500	80.0	0.0	0.0	0.0	0.0	0.0
